tests/data/correct/case3_001.m
%% branch data
%	fbus	tbus	r	x	b	rateA	rateB	rateC	ratio	angle	status	angmin	angmax
mpc.branch = [
	1	 3	 0.065	 0.62	 0.45	 9000.0	 0.0	 0.0	 0.0	 0.0	 1	 -30.0	 30.0;
	3	 2	 0.025	 0.75	 0.7	 50.0	 0.0	 0.0	 0.0	 0.0	 1	 -30.0	 30.0;
	1	 2	 0.042	 0.9	 0.3	 9000.0	 0.0	 0.0	 0.0	 0.0	 1	 -30.0	 30.0;
];

mpc.version = '2';

%% generator cost data
%	2	startup	shutdown	n	c(n-1)	...	c0
mpc.gencost = [
	2	 0.0	 0.0	 3	   0.110000	   5.000000	   0.000000;
	2	 0.0	 0.0	 3	   0.085000	   1.200000	   0.000000;
	2	 0.0	 0.0	 3	   0.000000	   0.000000	   0.000000;
];

function mpc = case3_000

%% generator data
%	bus	Pg	Qg	Qmax	Qmin	Vg	mBase	status	Pmax	Pmin	Pc1	Pc2	Qc1min	Qc1max	Qc2min	Qc2max	ramp_agc	ramp_10	ramp_30	ramp_q	apf
mpc.gen = [
	1	 148.067	 54.697	 1000.0	 -1000.0	 1.1	 100.0	 1	 2000.0	 0.0	 0.0	 0.0	 0.0	 0.0	 0.0	 0.0	 0.0	 0.0	 0.0	 0.0	 0.0;
	2	 170.006	 -8.791	 1000.0	 -1000.0	 0.92617	 100.0	 1	 2000.0	 0.0	 0.0	 0.0	 0.0	 0.0	 0.0	 0.0	 0.0	 0.0	 0.0	 0.0	 0.0;
	3	 0.0	 -4.843	 1000.0	 -1000.0	 0.9	 100.0	 1	 0.0	 0.0	 0.0	 0.0	 0.0	 0.0	 0.0	 0.0	 0.0	 0.0	 0.0	 0.0	 0.0;
];

mpc.baseMVA = 100.0;


%% bus data
%	bus_i	type	Pd	Qd	Gs	Bs	area	Vm	Va	baseKV	zone	Vmax	Vmin
mpc.bus = [
	1	 3	 110.0	 40.0	 0.0	 0.0	 1	    1.10000	   -0.00000	 240.0	 1	    1.10000	    0.90000;
	2	 2	 110.0	 40.0	 0.0	 0.0	 1	    0.92617	    7.25886	 240.0	 1	    1.10000	    0.90000;
	3	 2	 95.0	 50.0	 0.0	 0.0	 1	    0.90000	  -17.26711	 240.0	 1	    1.10000	    0.90000;
];

